/*--------------------------------*- C++ -*----------------------------------*\
| =========                 |                                                 |
| \\      /  F ield         | OpenFOAM: The Open Source CFD Toolbox           |
|  \\    /   O peration     | Version:  2.1.1                                 |
|   \\  /    A nd           | Web:      www.OpenFOAM.org                      |
|    \\/     M anipulation  |                                                 |
\*---------------------------------------------------------------------------*/
FoamFile
{
    version     2.0;
    format      ascii;
    class       polyBoundaryMesh;
    location    "constant/polyMesh";
    object      boundary;
}
// * * * * * * * * * * * * * * * * * * * * * * * * * * * * * * * * * * * * * //

3
(
    airBox_abOutlet
    {
        type            wall;
        nFaces          2471;
        startFace       181345;
    }
    airBox_abInlet
    {
        type            wall;
        nFaces          3570;
        startFace       183816;
    }
    airBox_abWall
    {
        type            wall;
        nFaces          9015;
        startFace       187386;
    }
)

// ************************************************************************* //
